output/ny_only_package_b/source_response_source_branch_comparison.csv
source_branch_row,model_branch_row,device_key,source_from_bus,source_to_bus,model_from_bus,model_to_bus,online,source_device_role,raw_circuit_id,identity_confidence,individual_circuit_identity_resolved,both_terminals_exact,crosses_aggregation_boundary,from_base_kv,to_base_kv,source_p_from_mw,regional_p_from_mw,delta_p_from_mw,source_q_from_mvar,regional_q_from_mvar,delta_q_from_mvar,source_p_to_mw,regional_p_to_mw,delta_p_to_mw,source_q_to_mvar,regional_q_to_mvar,delta_q_to_mvar,source_i_from_ka,regional_i_from_ka,delta_i_from_ka,source_i_to_ka,regional_i_to_ka,delta_i_to_ka
19,35,PERFORM2019:AC:2:777:1,777,2,20777,20002,1,ac_branch_unresolved_line_cable_or_equivalent,1,unique_RAW_endpoint_and_electrical_parameter_match,1,1,0,69,69,1.54095347355585,1.54088594764104,-6.7525914811073e-05,-0.182409801879979,-0.196736083052614,-0.0143262811726347,-1.53999999999994,-1.53999999999998,-3.97459842815806e-14,-2.2422255024912e-13,2.07552725006721e-13,4.31775275255841e-13,0.012853930069583,0.0124008529362104,-0.000453077133372592,0.012763720898057,0.0122999451363733,-0.000463775761683674
20,36,PERFORM2019:AC:3:794:1,794,3,20794,20003,1,ac_branch_unresolved_line_cable_or_equivalent,1,unique_RAW_endpoint_and_electrical_parameter_match,1,1,0,115,115,3.42018564667299,3.42017277419953,-1.28724734578256e-05,-0.114998691149369,-0.123681735632833,-0.00868304448346391,-3.42000000000015,-3.42000000000013,1.59872115546023e-14,-2.24059659714726e-12,-1.7929546736184e-12,4.47641923528863e-13,0.0168984940925433,0.0163031932569724,-0.000595300835570928,0.0168888861936444,0.0162924820979468,-0.000596404095697521
21,37,PERFORM2019:AC:4:193:1,4,193,20004,20193,1,ac_branch_unresolved_line_cable_or_equivalent,1,unique_RAW_endpoint_and_electrical_parameter_match,1,1,0,115,115,25.0352465710225,25.0348196963641,-0.000426874658380427,-0.0583911291958588,-0.0657301122429468,-0.00733898304708802,-25.0290105294806,-25.0289977306981,1.27987824960485e-05,0.0123860559527147,0.0129146244658331,0.000528568513118444,0.124135772685197,0.119943717508202,-0.0041920551769954,0.124135269771097,0.11994313915216,-0.00419213061893703
22,38,PERFORM2019:AC:4:193:2,4,193,20004,20193,1,ac_branch_unresolved_line_cable_or_equivalent,2,unique_RAW_endpoint_and_electrical_parameter_match,1,1,0,115,115,24.2345122883785,24.2341030127479,-0.00040927563054538,-0.038068014540996,-0.0453270708639097,-0.00725905632291379,-24.228496914871,-24.2284870626613,9.85220969340617e-06,-0.0108050107770064,-0.0104477977605972,0.000357213016409119,0.120165201049094,0.116107226123376,-0.00405797492571766,0.120164995253847,0.11610695361458,-0.00405804163926615
23,39,PERFORM2019:AC:4:193:3,4,193,20004,20193,1,ac_branch_unresolved_line_cable_or_equivalent,3,unique_RAW_endpoint_and_electrical_parameter_match,1,1,0,115,115,24.7992067339594,24.7987835584719,-0.000423175487448191,-0.0598807819779346,-0.0671745905733436,-0.00729380859540907,-24.7930277375911,-24.7930148501553,1.28874357834263e-05,0.0136326117652796,0.0141321475712974,0.000499535806017803,0.122965407281794,0.118812876869672,-0.00415253041212203,0.122964879951074,0.11881227324386,-0.00415260670721408
24,40,PERFORM2019:AC:4:449:1,4,449,20004,20449,1,ac_branch_unresolved_line_cable_or_equivalent,1,unique_RAW_endpoint_and_electrical_parameter_match,1,1,0,115,115,12.8429135154535,12.9255336531512,0.0826201376977149,-1.39738501034883,-1.64132613787475,-0.243941127525913,-12.8325791306134,-12.9157275647114,-0.0831484340980531,0.993363568261107,1.20332245652028,0.209958888259173,0.0640564851110132,0.0624242792165179,-0.00163220589449535,0.0638510913379852,0.0621733950128729,-0.00167769632511235
25,41,PERFORM2019:AC:4:1527:1,4,1527,20004,21527,1,ac_branch_unresolved_line_cable_or_equivalent,1,electrically_identical_parallel_assignment_not_unique_physical_identity,0,1,0,115,115,-80.4809395544004,-80.5216199603717,-0.0406804059713437,0.776862468050403,0.909778955780062,0.132916487729659,80.7937290567661,80.813957909094,0.0202288523279321,0.278583219247182,0.0388230718444511,-0.23976014740273,0.399077430385476,0.385808474240506,-0.0132689561449698,0.399081674297957,0.385816150934106,-0.0132655233638511
26,42,PERFORM2019:AC:4:1527:2,4,1527,20004,21527,1,ac_branch_unresolved_line_cable_or_equivalent,2,electrically_identical_parallel_assignment_not_unique_physical_identity,0,1,0,115,115,-80.4809395544004,-80.5216199603717,-0.0406804059713437,0.776862468050403,0.909778955780062,0.132916487729659,80.7937290567661,80.813957909094,0.0202288523279321,0.278583219247182,0.0388230718444511,-0.23976014740273,0.399077430385476,0.385808474240506,-0.0132689561449698,0.399081674297957,0.385816150934106,-0.0132655233638511
27,43,PERFORM2019:AC:5:990:1,990,5,20990,20005,1,ac_branch_unresolved_line_cable_or_equivalent,1,unique_RAW_endpoint_and_electrical_parameter_match,1,1,0,115,115,3.42000563794394,3.42000524773722,-3.90206719824704e-07,-0.00309045676675418,-0.00332334818096253,-0.000232891414208347,-3.41999999997933,-3.42000000006551,-8.61795079742933e-11,-1.06732567228818e-10,5.17346721018441e-11,1.58467239330662e-10,0.0168584364525354,0.0162645409009669,-0.0005938955515685,0.0168584295217293,0.0162645331760019,-0.000593896345727374
28,44,PERFORM2019:AC:6:635:1,635,6,20635,20006,1,ac_branch_unresolved_line_cable_or_equivalent,1,unique_RAW_endpoint_and_electrical_parameter_match,1,1,0,115,115,-7.94337848211594,-7.94351859549465,-0.000140113378707341,-0.461673467342254,0.249756131982794,0.711429599325048,7.9455081153996,7.94551667789173,8.56249213221361e-06,0.20576360795556,-0.523815089783943,-0.729578697739503,0.0385922094200171,0.0373236404355059,-0.00126856898451116,0.0385383339580067,0.0373880982535628,-0.00115023570444384
29,45,PERFORM2019:AC:7:698:1,698,7,20698,20007,1,ac_branch_unresolved_line_cable_or_equivalent,1,unique_RAW_endpoint_and_electrical_parameter_match,1,1,0,115,115,1.17533735763776,1.17214559842408,-0.00319175921368142,-0.159903685295345,-0.178484463076556,-0.0185807777812107,-1.17531092232125,-1.17212095000591,0.00318997231533724,0.0117777657675237,0.0201762841126203,0.00839851834509661,0.00576653034221742,0.00557587823088288,-0.00019065211133454,0.0057141400202845,0.00551311352140431,-0.000201026498880191
30,46,PERFORM2019:AC:7:699:1,699,7,20699,20007,1,ac_branch_unresolved_line_cable_or_equivalent,1,unique_RAW_endpoint_and_electrical_parameter_match,1,1,0,115,115,5.66529997795609,5.66845134713185,0.00315136917576009,-0.13394577731715,-0.135881875855463,-0.00193609853831311,-5.66468907767837,-5.66787904999501,-0.00318997231663154,-0.0117777657713896,-0.0201762841149381,-0.00839851834354854,0.0275470959808762,0.0266628977870967,-0.000884198193779571,0.0275393266493632,0.0266552954339831,-0.00088403121538012
31,47,PERFORM2019:AC:8:676:1,676,8,20676,20008,1,ac_branch_unresolved_line_cable_or_equivalent,1,unique_RAW_endpoint_and_electrical_parameter_match,1,1,0,115,115,-10.6755191253988,-10.6595601163198,0.0159590090789656,1.98578281981597,1.34300825120417,-0.642774568611799,10.6779482586766,10.6617778976745,-0.0161703610021533,-2.12362003905457,-1.49230907723732,0.631310961817248,0.0537992076174914,0.0514218806004485,-0.00237732701704288,0.053937646992778,0.0515218451992671,-0.00241580179351095
32,48,PERFORM2019:AC:8:677:1,677,8,20677,20008,1,ac_branch_unresolved_line_cable_or_equivalent,1,unique_RAW_endpoint_and_electrical_parameter_match,1,1,0,115,115,17.5243531525717,17.5076983011013,-0.0166548514703351,-2.24604426182584,-1.62741841179047,0.618625850035379,-17.5179482586764,-17.5017778976766,0.0161703609998618,2.12362003905606,1.4923090772285,-0.631310961827564,0.0875155581685881,0.0841306076187579,-0.00338495054983017,0.0874242711228549,0.0840628190672093,-0.00336145205564556
33,49,PERFORM2019:AC:9:524:1,9,524,20009,20524,1,ac_branch_unresolved_line_cable_or_equivalent,1,unique_RAW_endpoint_and_electrical_parameter_match,1,1,0,115,115,7.06155548860899,7.07127747219878,0.00972198358979171,9.96536129482599,10.5928623601784,0.627501065352453,-7.04611264867777,-7.05528346411415,-0.00917081543638698,-10.7313223800426,-11.3992601771086,-0.667937797065997,0.0580740936308799,0.059057467034116,0.000983373403236162,0.0613419683989553,0.0624695634962545,0.00112759509729914
34,50,PERFORM2019:AC:9:649:1,649,9,20649,20009,1,ac_branch_unresolved_line_cable_or_equivalent,1,electrically_identical_parallel_assignment_not_unique_physical_identity,0,1,0,115,115,-20.803082850462,-20.3629514685692,0.440131381892787,-11.012847183134,-10.8514617548763,0.161385428257692,20.875917154467,20.42932171331,-0.446595441157022,10.1998781965931,9.95371189063047,-0.246166305962678,0.112889623761232,0.107855309831589,-0.00503431392964326,0.110476267148089,0.105375818701846,-0.00510044844624259
35,51,PERFORM2019:AC:9:649:2,649,9,20649,20009,1,ac_branch_unresolved_line_cable_or_equivalent,2,electrically_identical_parallel_assignment_not_unique_physical_identity,0,1,0,115,115,-20.803082850462,-20.3629514685692,0.440131381892787,-11.012847183134,-10.8514617548763,0.161385428257692,20.875917154467,20.42932171331,-0.446595441157022,10.1998781965931,9.95371189063047,-0.246166305962678,0.112889623761232,0.107855309831589,-0.00503431392964326,0.110476267148089,0.105375818701846,-0.00510044844624259
36,52,PERFORM2019:XFMR:9:848:1,848,9,20848,20009,1,two_winding_transformer,1,unique_RAW_endpoint_and_electrical_parameter_match,1,1,0,345,115,200.135459798445,199.949445573184,-0.186014225260976,50.1947362191184,53.9704048827979,3.77566866367948,-199.771985218672,-199.602072576589,0.169912642083773,-24.7515156350631,-29.6542951211485,-4.90277948608541,0.32722967681688,0.319899594376074,-0.00733008244080602,0.957146804689374,0.935706313550017,-0.0214404911393575
37,53,PERFORM2019:AC:9:851:1,9,851,20009,20851,1,ac_branch_unresolved_line_cable_or_equivalent,1,unique_RAW_endpoint_and_electrical_parameter_match,1,1,0,115,115,114.22859542113,114.94215167777,0.713556256640118,-5.61360205294796,-0.845991020287265,4.76761103266069,-113.849679306276,-114.578100501794,-0.728421195518152,6.93513343666464,2.09349916044727,-4.84163427621737,0.543794135690743,0.532997063762771,-0.0107970719279717,0.543729863134536,0.532981705521626,-0.0107481576129108
38,54,PERFORM2019:AC:10:450:1,10,450,20010,20450,1,ac_branch_unresolved_line_cable_or_equivalent,1,unique_RAW_endpoint_and_electrical_parameter_match,1,1,0,115,115,-14.8099999999999,-14.8099999999993,6.71462885293295e-13,8.13571432445315e-13,2.77555756156289e-12,1.96198612911758e-12,14.8191113565147,14.8184898499072,-0.000621506607492606,-0.250296029169232,-0.273940237266275,-0.0236442080970432,0.0741181225896063,0.0715450817265269,-0.0025730408630794,0.074130289062666,0.0715588766164173,-0.00257141244624878
39,55,PERFORM2019:AC:11:489:1,11,489,20011,20489,1,ac_branch_unresolved_line_cable_or_equivalent,1,unique_RAW_endpoint_and_electrical_parameter_match,1,1,0,115,115,9.91821345182537,10.2059979492,0.287784497374613,-7.17838123281065,-7.13239040256114,0.0459908302495142,-9.91539059758861,-10.2032814621589,-0.287890864570313,7.05147746909457,6.99472359480419,-0.0567538742903873,0.0604499901787551,0.0593064368629125,-0.00114355331584261,0.0600511507591384,0.0589028001433939,-0.00114835061574452
40,56,PERFORM2019:AC:11:795:1,795,11,20795,20011,1,ac_branch_unresolved_line_cable_or_equivalent,1,unique_RAW_endpoint_and_electrical_parameter_match,1,1,0,115,115,16.7595000626023,17.0472280432584,0.287727980656111,-7.20098877192659,-7.15731127165046,0.043677500276134,-16.7582134518182,-17.0459979492026,-0.287784497384362,7.17838123284588,7.13239040253781,-0.0459908303080692,0.0900671085220354,0.0880677630871389,-0.00199934543489651,0.0900127682855705,0.0880125350960341,-0.00200023318953645
41,57,PERFORM2019:AC:12:872:1,872,12,20872,20012,1,ac_branch_unresolved_line_cable_or_equivalent,1,unique_RAW_endpoint_and_electrical_parameter_match,1,1,0,115,115,3.42000557852591,3.42000522445323,-3.54072679620288e-07,-0.00312382649844387,-0.00333830331937857,-0.0002144768209347,-3.41999999999318,-3.4199999999679,2.52735610217769e-11,1.46067463679955e-10,-1.05457809151943e-10,-2.51525272831898e-10,0.0167693703179007,0.0162284984569339,-0.000540871860966807,0.0167693632751314,0.0162284906797531,-0.000540872595378293
42,58,PERFORM2019:AC:13:196:1,13,196,20013,20196,1,ac_branch_unresolved_line_cable_or_equivalent,1,unique_RAW_endpoint_and_electrical_parameter_match,1,1,0,115,115,-9.45345446786928,-10.5002513154312,-1.04679684756193,-1.13104987558553,0.882913207373791,2.01396308295932,9.45481370328883,10.5018131730263,1.04699946973749,1.0254786477453,-0.995248372605495,-2.02072702035079,0.0468943561225725,0.0502097497189947,0.00331539359642218,0.0468323033417251,0.0502601650338173,0.00342786169209219
43,59,PERFORM2019:AC:13:864:1,864,13,20864,20013,1,ac_branch_unresolved_line_cable_or_equivalent,1,unique_RAW_endpoint_and_electrical_parameter_match,1,1,0,115,115,-2.74230874916853,-3.77708640896161,-1.03477765979308,-1.99510830102906,-0.00425647827486572,1.99085182275419,2.74312454267243,3.77813577653867,1.03501123386623,1.4223050325553,-0.607401011623067,-2.02970604417837,0.016716252307449,0.0180009728081564,0.00128472050070741,0.0152192304973885,0.0182337985031124,0.00301456800572385
44,60,PERFORM2019:AC:13:865:1,865,13,20865,20013,1,ac_branch_unresolved_line_cable_or_equivalent,1,unique_RAW_endpoint_and_electrical_parameter_match,1,1,0,115,115,-2.48519803985601,-3.54367437466258,-1.05847633480658,-1.41327449630608,0.547782880571187,1.96105737687727,2.48578089650064,3.54464782768323,1.05886693118258,0.837310753625102,-1.16208953051048,-1.99940028413558,0.0140893796843287,0.0170859971693287,0.00299661748500006,0.0129194517214325,0.017774597329346,0.00485514560791345
45,61,PERFORM2019:AC:13:1442:1,13,1442,20013,21442,1,ac_branch_unresolved_line_cable_or_equivalent,1,unique_RAW_endpoint_and_electrical_parameter_match,1,1,0,115,115,-9.46545097130524,-10.5125322887918,-1.04708131748654,-1.12856591059558,0.886577334752551,2.01514324534813,9.46681353443678,10.514097870008,1.04728433557123,1.02301716147471,-0.998887053679017,-2.02190421515373,0.0469515760532144,0.0502695266425836,0.00331795058936921,0.0468897412175719,0.0503200777653055,0.00343033654773361
46,62,PERFORM2019:AC:14:460:1,14,460,20014,20460,1,ac_branch_unresolved_line_cable_or_equivalent,1,unique_RAW_endpoint_and_electrical_parameter_match,1,1,0,115,115,2.08005959542802,2.08005592788874,-3.66753928116026e-06,-0.101553940158526,-0.108253324795977,-0.00669938463745073,-2.08000000000266,-2.07999999999858,4.08739708745998e-12,-9.2617302716036e-12,2.30515259658226e-12,1.15668828681859e-11,0.0102581307649051,0.00993868050526004,-0.000319450259645027,0.0102458969717707,0.00992521940228745,-0.000320677569483237
47,63,PERFORM2019:AC:14:1017:1,1017,14,21017,20014,1,ac_branch_unresolved_line_cable_or_equivalent,1,unique_RAW_endpoint_and_electrical_parameter_match,1,1,0,115,115,6.23112184941477,6.23105287439772,-6.89750170570491e-05,-0.298719850397202,-0.31892095074446,-0.0202011003472578,-6.23005959542529,-6.23005592789075,3.66753454006385e-06,0.10155394016711,0.108253324790725,0.00669938462361444,0.0307238791953103,0.029767086705395,-0.000956792489915311,0.0306920119120734,0.0297319820479081,-0.000960029864165303
48,64,PERFORM2019:AC:15:59:1,59,15,20059,20015,1,ac_branch_unresolved_line_cable_or_equivalent,1,unique_RAW_endpoint_and_electrical_parameter_match,1,1,0,115,115,-25.3729063105203,-36.9053447447985,-11.5324384342782,8.38376753892896,15.0295808892989,6.64581335036997,25.6261286955222,37.4243033443998,11.7981746488776,-9.98155685873557,-15.7271960112713,-5.74563915253575,0.130099942395738,0.18672038970299,0.0566204473072523,0.134471792325758,0.191837843249573,0.0573660509238153
49,65,PERFORM2019:AC:15:402:1,15,402,20015,20402,1,ac_branch_unresolved_line_cable_or_equivalent,1,unique_RAW_endpoint_and_electrical_parameter_match,1,1,0,115,115,-14.0924859527254,-25.8906548840672,-11.7981689313419,8.19974618168748,15.4514471859735,7.25170100428597,14.0978062521908,25.9076165257761,11.8098102735853,-8.32945195873414,-15.543584364028,-7.21413240529389,0.0797224810092063,0.1424837173301,0.0627612363208934,0.0800978566604997,0.14287794112168,0.0627800844611798
50,66,PERFORM2019:AC:16:391:1,16,391,20016,20391,1,ac_branch_unresolved_line_cable_or_equivalent,1,unique_RAW_endpoint_and_electrical_parameter_match,1,1,0,115,115,37.715472655155,40.6232853134613,2.9078126583063,-5.11384860189917,-5.89413488014854,-0.780286278249376,-37.4129322871312,-40.3004525658056,-2.88752027867446,4.90632098476021,5.63926948063689,0.732948495876686,0.190201654899332,0.196516762269276,0.00631510736994412,0.189236776509748,0.195441603837855,0.00620482732810676
51,67,PERFORM2019:AC:16:1030:1,1030,16,21030,20016,1,ac_branch_unresolved_line_cable_or_equivalent,1,unique_RAW_endpoint_and_electrical_parameter_match,1,1,0,115,115,63.0980639058268,61.172436189393,-1.92562771643381,-8.04373006961793,-6.99499516477421,1.04873490484372,-62.7652410826847,-60.8862651662521,1.8789759164326,8.8414237817866,7.54788846963893,-1.29353531214767,0.317139870648776,0.294075447953008,-0.0230644226957681,0.316755854860476,0.293718765097678,-0.0230370897627975
52,68,PERFORM2019:AC:16:1050:1,1050,16,21050,20016,1,ac_branch_unresolved_line_cable_or_equivalent,1,unique_RAW_endpoint_and_electrical_parameter_match,1,1,0,115,115,78.1469608920832,76.053291321553,-2.09366957053014,-5.07999119524684,-6.14084735419599,-1.06085615894915,-76.6687397927118,-74.7611202393113,1.90761955340048,9.45030292022483,9.58923918929299,0.138936269068163,0.386847601554564,0.361780342395915,-0.025067259158649,0.386039299905823,0.360844327605577,-0.0251949723002461
53,69,PERFORM2019:AC:16:1051:1,1051,16,21051,20016,1,ac_branch_unresolved_line_cable_or_equivalent,1,unique_RAW_endpoint_and_electrical_parameter_match,1,1,0,115,115,-58.2851251434926,-48.9635503554849,9.32157478800761,8.51065144239967,5.74133737403596,-2.76931406836371,58.3563797386468,49.0093581834789,-9.34702155516792,-8.35889746282624,-5.70777431639703,2.65112314642921,0.294500629459932,0.236127001282105,-0.0583736281778267,0.294603119628298,0.23621375465545,-0.0583893649728482
54,70,PERFORM2019:AC:16:1394:1,16,1394,20016,21394,1,ac_branch_unresolved_line_cable_or_equivalent,1,unique_RAW_endpoint_and_electrical_parameter_match,1,1,0,115,115,32.9721284815937,35.6247419086237,2.65261342703003,-4.81898063728734,-5.53521846237932,-0.716237825091975,-32.6883189302704,-35.3200158274204,-2.63169689715001,4.20363713080209,4.84537369208842,0.641736561286334,0.16652343756007,0.172596661823248,0.00607322426317866,0.165304670966632,0.171243377375333,0.00593870640870134
55,71,PERFORM2019:AC:17:628:N1,17,628,20017,20628,1,ac_branch_unresolved_line_cable_or_equivalent,N1,electrically_identical_parallel_assignment_not_unique_physical_identity,0,1,0,138,138,158.07967698368,158.358022068585,0.278345084904572,-4.57817669542595,-7.36036600225296,-2.78218930682701,-157.704107602206,-157.993046389827,-0.28893878762085,-0.767299723357411,1.72049643317766,2.48779615653507,0.622092533487983,0.613511783220227,-0.00858075026775618,0.621750050473637,0.612682857662502,-0.00906719281113577
56,72,PERFORM2019:AC:17:628:N2,17,628,20017,20628,1,ac_branch_unresolved_line_cable_or_equivalent,N2,electrically_identical_parallel_assignment_not_unique_physical_identity,0,1,0,138,138,158.07967698368,158.358022068585,0.278345084904572,-4.57817669542595,-7.36036600225296,-2.78218930682701,-157.704107602206,-157.993046389827,-0.28893878762085,-0.767299723357411,1.72049643317766,2.48779615653507,0.622092533487983,0.613511783220227,-0.00858075026775618,0.621750050473637,0.612682857662502,-0.00906719281113577
57,73,PERFORM2019:XFMR:17:1467:1,17,1467,20017,21467,1,two_winding_transformer,1,electrically_identical_parallel_assignment_not_unique_physical_identity,0,1,0,138,69,64.9652394253194,64.6869718530034,-0.278267572316025,25.4877121575938,25.8267766642198,0.339064506625977,-64.8352169131374,-64.5616045390032,0.273612374134188,-20.8103460239985,-21.3168743486627,-0.506528324664181,0.274515007020279,0.269555982742733,-0.0049590242775458,0.549030014040557,0.539111965485465,-0.0099180485550916
58,74,PERFORM2019:XFMR:17:1467:2,17,1467,20017,21467,1,two_winding_transformer,2,electrically_identical_parallel_assignment_not_unique_physical_identity,0,1,0,138,69,64.9652394253194,64.6869718530034,-0.278267572316025,25.4877121575938,25.8267766642198,0.339064506625977,-64.8352169131374,-64.5616045390032,0.273612374134188,-20.8103460239985,-21.3168743486627,-0.506528324664181,0.274515007020279,0.269555982742733,-0.0049590242775458,0.549030014040557,0.539111965485465,-0.0099180485550916
59,75,PERFORM2019:AC:18:561:1,18,561,20018,20561,1,ac_branch_unresolved_line_cable_or_equivalent,1,unique_RAW_endpoint_and_electrical_parameter_match,1,1,0,69,69,112.225410537474,111.14620659647,-1.07920394100412,-25.9038420317054,-29.418318703836,-3.51447667213058,-107.572012399635,-106.618943443963,0.953068955672791,36.2818318023809,39.5040362549089,3.22220445252805,0.901886209582661,0.889608492479552,-0.0122777171031097,0.901456472450898,0.889125608520345,-0.0123308639305534
60,76,PERFORM2019:AC:18:583:1,18,583,20018,20583,1,ac_branch_unresolved_line_cable_or_equivalent,1,unique_RAW_endpoint_and_electrical_parameter_match,1,1,0,69,69,64.0183761559532,63.350583768533,-0.667792387420263,-6.5698654422293,-8.54924047283279,-1.97937503060349,-63.6524337433646,-62.9980471637404,0.654386579624209,7.35068501380847,9.29831574105181,1.94763072724333,0.503928287945716,0.494618868450624,-0.0093094194950924,0.50388477022861,0.494562023257202,-0.009322746971408
61,77,PERFORM2019:AC:18:585:1,18,585,20018,20585,1,ac_branch_unresolved_line_cable_or_equivalent,1,unique_RAW_endpoint_and_electrical_parameter_match,1,1,0,69,69,98.4331579985031,97.6824164905155,-0.750741507987613,-13.5134921555482,-16.0241735512132,-2.51068139566499,-97.7398287002182,-97.0104754077787,0.729353292439484,15.0485598368649,17.5096119940902,2.46105215722539,0.778009829833682,0.765920398380542,-0.01208943145314,0.777963563097581,0.765865220304679,-0.0120983427929015
62,78,PERFORM2019:AC:18:1494:1,18,1494,20018,21494,1,ac_branch_unresolved_line_cable_or_equivalent,1,unique_RAW_endpoint_and_electrical_parameter_match,1,1,0,69,69,-43.466075060394,-42.6924313332855,0.773643727108464,6.01724491515272,2.07320635360345,-3.94403856154928,43.5262804985124,42.7482042811205,-0.778076217391863,-5.89859348001608,-1.96508308334693,3.93351039666915,0.343606703502152,0.330722203183184,-0.0128845003189677,0.343626126709261,0.330729042283591,-0.0128970844256706
63,79,PERFORM2019:AC:18:1494:2,18,1494,20018,21494,1,ac_branch_unresolved_line_cable_or_equivalent,2,electrically_identical_parallel_assignment_not_unique_physical_identity,0,1,0,69,69,-48.5360758002873,-47.6740224950454,0.862053305241936,6.74245514295737,2.33779666586442,-4.40465847709295,48.6033730755722,47.7363651594488,-0.867007916123427,-6.60556476676735,-2.21255316576301,4.39301160100434,0.383711027534882,0.369321267988946,-0.014389759545936,0.383728075842678,0.369327306287922,-0.0144007695547558
64,80,PERFORM2019:AC:18:1494:3,18,1494,20018,21494,1,ac_branch_unresolved_line_cable_or_equivalent,3,electrically_identical_parallel_assignment_not_unique_physical_identity,0,1,0,69,69,-48.5360758002873,-47.6740224950454,0.862053305241936,6.74245514295737,2.33779666586442,-4.40465847709295,48.6033730755722,47.7363651594488,-0.867007916123427,-6.60556476676735,-2.21255316576301,4.39301160100434,0.383711027534882,0.369321267988946,-0.014389759545936,0.383728075842678,0.369327306287922,-0.0144007695547558
65,81,PERFORM2019:AC:19:1538:1,19,1538,20019,21538,1,ac_branch_unresolved_line_cable_or_equivalent,1,electrically_identical_parallel_assignment_not_unique_physical_identity,0,1,0,115,115,245.407586162497,245.407590252313,4.08981554755883e-06,-44.9650570245879,-37.3125382689187,7.65251875566926,-243.208074927409,-243.341891064261,-0.133816136852005,53.7849332347896,45.5640753925699,-8.22085784221976,1.20797129115019,1.17063618931766,-0.0373351018325307,1.2077034025986,1.17040419485668,-0.0372992077419239
66,82,PERFORM2019:AC:19:1538:2,19,1538,20019,21538,1,ac_branch_unresolved_line_cable_or_equivalent,2,electrically_identical_parallel_assignment_not_unique_physical_identity,0,1,0,115,115,245.407586162497,245.407590252313,4.08981554755883e-06,-44.9650570245879,-37.3125382689187,7.65251875566926,-243.208074927409,-243.341891064261,-0.133816136852005,53.7849332347896,45.5640753925699,-8.22085784221976,1.20797129115019,1.17063618931766,-0.0373351018325307,1.2077034025986,1.17040419485668,-0.0372992077419239
67,83,PERFORM2019:AC:19:1538:3,19,1538,20019,21538,1,ac_branch_unresolved_line_cable_or_equivalent,3,electrically_identical_parallel_assignment_not_unique_physical_identity,0,1,0,115,115,245.407586162497,245.407590252313,4.08981554755883e-06,-44.9650570245879,-37.3125382689187,7.65251875566926,-243.208074927409,-243.341891064261,-0.133816136852005,53.7849332347896,45.5640753925699,-8.22085784221976,1.20797129115019,1.17063618931766,-0.0373351018325307,1.2077034025986,1.17040419485668,-0.0372992077419239
68,84,PERFORM2019:AC:19:1538:4,19,1538,20019,21538,1,ac_branch_unresolved_line_cable_or_equivalent,4,electrically_identical_parallel_assignment_not_unique_physical_identity,0,1,0,115,115,245.407586162497,245.407590252313,4.08981554755883e-06,-44.9650570245879,-37.3125382689187,7.65251875566926,-243.208074927409,-243.341891064261,-0.133816136852005,53.7849332347896,45.5640753925699,-8.22085784221976,1.20797129115019,1.17063618931766,-0.0373351018325307,1.2077034025986,1.17040419485668,-0.0372992077419239
69,85,PERFORM2019:AC:19:1538:5,19,1538,20019,21538,1,ac_branch_unresolved_line_cable_or_equivalent,5,electrically_identical_parallel_assignment_not_unique_physical_identity,0,1,0,115,115,245.407586162497,245.407590252313,4.08981554755883e-06,-44.9650570245879,-37.3125382689187,7.65251875566926,-243.208074927409,-243.341891064261,-0.133816136852005,53.7849332347896,45.5640753925699,-8.22085784221976,1.20797129115019,1.17063618931766,-0.0373351018325307,1.2077034025986,1.17040419485668,-0.0372992077419239
70,86,PERFORM2019:AC:20:1004:1,1004,20,21004,20020,1,ac_branch_unresolved_line_cable_or_equivalent,1,unique_RAW_endpoint_and_electrical_parameter_match,1,1,0,115,115,34.9793735819196,23.1424925658282,-11.8368810160914,-14.9691478843191,-1.57635867817948,13.3927892061396,-34.9707359054283,-23.1394607738338,11.8312751315945,14.9611840620767,1.54267375152151,-13.4185103105552,0.18743127276666,0.11102596877294,-0.07640530399372,0.187346731286914,0.111011098242497,-0.0763356330444163
71,87,PERFORM2019:AC:20:1008:1,1008,20,21008,20020,1,ac_branch_unresolved_line_cable_or_equivalent,1,unique_RAW_endpoint_and_electrical_parameter_match,1,1,0,115,115,-54.2138826661215,-70.74771671369,-16.5338340475686,5.43277828050258,8.44566862200297,3.01289034150039,54.6235641558357,71.4101011012412,16.7865369454056,-4.74223041166077,-6.76812881427844,-2.02589840261768,0.269594774014203,0.342819057439824,0.0732242834256219,0.270056119293308,0.343361587226743,0.0733054679334357
72,88,PERFORM2019:AC:20:1020:1,1020,20,21020,20020,1,ac_branch_unresolved_line_cable_or_equivalent,1,unique_RAW_endpoint_and_electrical_parameter_match,1,1,0,115,115,34.5066377183785,50.1081359560161,15.6014982376376,1.35521578194556,-10.1407269588381,-11.4959427407837,-34.4019281619955,-49.8908626049051,-15.4889344429096,-1.5780755148139,10.3468433993313,11.9249189141452,0.169485008606923,0.244567011049367,0.0750820024424443,0.169622199432575,0.243902071122636,0.0742798716900606
73,89,PERFORM2019:AC:20:1195:1,1195,20,21195,20020,1,ac_branch_unresolved_line_cable_or_equivalent,1,unique_RAW_endpoint_and_electrical_parameter_match,1,1,0,115,115,-6.42907589543075,6.6955617709877,13.1246376664184,8.00945502176959,4.43310856405943,-3.57634645771016,6.43909991158882,-6.68977772250515,-13.128877634094,-8.64087813560448,-5.12138833658039,3.51948979902409,0.0504588061841646,0.0383521991319772,-0.0121066070521874,0.0530774021327679,0.0403295601161935,-0.0127478420165744
74,90,PERFORM2019:AC:21:403:1,21,403,20021,20403,1,ac_branch_unresolved_line_cable_or_equivalent,1,unique_RAW_endpoint_and_electrical_parameter_match,1,1,0,115,115,22.5563335177831,34.6124310017863,12.0560974840032,-10.3349073166415,-16.7023478307568,-6.3674405141153,-22.5268750070477,-34.5455960626143,-12.0187210555666,10.100207279683,16.6009316692347,6.50072438955168,0.122223110272822,0.183942357448899,0.0617192471760774,0.121498233313342,0.183158055756763,0.0616598224434215
75,91,PERFORM2019:AC:21:406:1,21,406,20021,20406,1,ac_branch_unresolved_line_cable_or_equivalent,1,unique_RAW_endpoint_and_electrical_parameter_match,1,1,0,115,115,-24.5418209126941,-24.7984664473875,-0.256645534693416,10.2233122798671,4.60736243848188,-5.6159498413852,24.681854544911,24.9167474617173,0.234892916806299,-10.6317468066341,-5.14693258578471,5.48481422084942,0.13096585365152,0.120722203899362,-0.0102436497521578,0.132678586027037,0.121593686739049,-0.0110848992879881
76,92,PERFORM2019:AC:21:1004:1,1004,21,21004,20021,1,ac_branch_unresolved_line_cable_or_equivalent,1,unique_RAW_endpoint_and_electrical_parameter_match,1,1,0,115,115,-0.926473903424233,10.7119560998477,11.638430003272,-1.02121693237224,-5.1484328188668,-4.12721588649455,0.926481116045028,-10.7114430950725,-11.6379242111175,0.99320301215555,5.12081729725516,4.12761428509961,0.00679252437798776,0.0568862274033955,0.0500937030254077,0.00669085311778924,0.0568247687387877,0.0501339156209985
77,93,PERFORM2019:AC:21:1005:1,1005,21,21005,20021,1,ac_branch_unresolved_line_cable_or_equivalent,1,unique_RAW_endpoint_and_electrical_parameter_match,1,1,0,115,115,28.0695773050127,44.7552324680919,16.6856551630793,2.36362284314926,-10.2707051751912,-12.6343280183404,-28.0287421843733,-44.652736423119,-16.6239942387457,-2.57658623096036,10.2910006482544,12.8675868792147,0.138490075610312,0.219753653544043,0.081263577933731,0.138654975521074,0.219320471968852,0.0806654964477783
78,94,PERFORM2019:AC:21:1009:1,1009,21,21009,20021,1,ac_branch_unresolved_line_cable_or_equivalent,1,unique_RAW_endpoint_and_electrical_parameter_match,1,1,0,115,115,-55.6341057080203,-71.8458075164618,-16.2117018084415,5.93527414178178,8.58255945592366,2.64728531414188,56.0658924909512,72.5283677538406,16.4624752628894,-5.15332591574748,-6.82215718968058,-1.66883127393309,0.276861697072194,0.348128439332449,0.071266742260255,0.277351265729526,0.348669406568733,0.0713181408392062
79,95,PERFORM2019:AC:22:1204:1,1204,22,21204,20022,1,ac_branch_unresolved_line_cable_or_equivalent,1,unique_RAW_endpoint_and_electrical_parameter_match,1,1,0,69,69,1.54066416727396,1.54061676076647,-4.74065074875796e-05,-0.125949871207603,-0.135887979167388,-0.00993810795978542,-1.5400000000002,-1.53999999999992,2.75779399316889e-13,-6.49254087992102e-13,6.91668944341473e-14,7.18420982426249e-13,0.0128575706418725,0.0123952591308647,-0.000462311511007733,0.0128142987856264,0.0123468176843165,-0.000467481101309956
80,96,PERFORM2019:AC:23:751:1,751,23,20751,20023,1,ac_branch_unresolved_line_cable_or_equivalent,1,unique_RAW_endpoint_and_electrical_parameter_match,1,1,0,115,115,-33.7051623238189,-22.0982815830522,11.6068807407667,8.83651659737411,4.93701941315302,-3.89949718422109,34.0898333599217,22.2502536646079,-11.8395796953138,-9.38489101562112,-6.61522496298521,2.7696660526359,0.17478715215648,0.10941663633338,-0.0653705158230999,0.177574009504424,0.112225472161083,-0.0653485373433408
81,97,PERFORM2019:AC:23:1193:1,1193,23,21193,20023,1,ac_branch_unresolved_line_cable_or_equivalent,1,unique_RAW_endpoint_and_electrical_parameter_match,1,1,0,115,115,59.7282096423047,41.9088555791378,-17.8193540631668,-16.4771584293401,-10.7564096639512,5.72074876538891,-59.469836239512,-41.7923114193442,17.6775248201677,17.0852089845343,10.7413104589093,-6.34389852562494,0.311375275693536,0.209215088594086,-0.10216018709945,0.310748428343064,0.208617262115605,-0.102131166227459
82,98,PERFORM2019:AC:23:1194:1,1194,23,21194,20023,1,ac_branch_unresolved_line_cable_or_equivalent,1,unique_RAW_endpoint_and_electrical_parameter_match,1,1,0,115,115,59.5317188496622,41.6934969700566,-17.8382218796056,-16.391644310314,-10.6324794239776,5.75916488633642,-59.2754983148215,-41.5784132784229,17.6970850363987,16.9922188339413,10.6126043682871,-6.37961446565426,0.310305780014236,0.208053895382559,-0.102251884631676,0.309681475225985,0.207461088298662,-0.102220386927323
83,99,PERFORM2019:AC:23:1208:1,1208,23,21208,20023,1,ac_branch_unresolved_line_cable_or_equivalent,1,unique_RAW_endpoint_and_electrical_parameter_match,1,1,0,115,115,-35.9563055177394,-25.9857845740015,9.97052094373788,9.33164450156855,6.28844183099393,-3.04320267057462,36.2004346730238,26.1034520494451,-10.0969826235788,-9.52367079532782,-7.09825931503334,2.42541148029448,0.186465236443039,0.129223509393482,-0.0572417270495573,0.187990790474187,0.130783356027032,-0.0572074344471551
84,100,PERFORM2019:AC:23:1214:1,1214,23,21214,20023,1,ac_branch_unresolved_line_cable_or_equivalent,1,unique_RAW_endpoint_and_electrical_parameter_match,1,1,0,115,115,-38.0012011314303,-24.6036031647955,13.3975979666349,15.1718105145094,7.45571581336715,-7.71609470114229,38.0650665213881,24.6270189837149,-13.4380475376732,-15.1688660075257,-7.64043054917479,7.5284354583509,0.205303351019326,0.124262067143667,-0.0810412838756594,0.20578887571389,0.124661023535405,-0.0811278521784851
86,101,PERFORM2019:AC:24:913:1,913,24,20913,68,1,ac_branch_unresolved_line_cable_or_equivalent,1,unique_RAW_endpoint_and_electrical_parameter_match,1,0,1,115,115,-6.15816192975516,85.066032735891,91.2241946656461,-3.25919381302136,-12.6273370259517,-9.36814321293034,6.16948745211643,-83.2265502689399,-89.3960377210563,1.34456288495398,18.1885188279595,16.8439559430055,0.034261269252166,0.412272322031623,0.378011052779457,0.0309223479856196,0.410503551943185,0.379581203957566
87,102,PERFORM2019:AC:24:914:1,914,24,20914,68,1,ac_branch_unresolved_line_cable_or_equivalent,1,unique_RAW_endpoint_and_electrical_parameter_match,1,0,1,115,115,-4.20658522525824,90.4278444863241,94.6344297115823,-3.99450098599136,-9.79483956271755,-5.80033857672619,4.21557958334151,-87.6126369467213,-91.8282165300628,1.32357711705186,18.593483142479,17.2699060254272,0.0285656660721728,0.433717077462118,0.405151411389946,0.0216381411155372,0.431575670604455,0.409937529488918
90,103,PERFORM2019:AC:25:83:1,25,83,20025,20083,1,ac_branch_unresolved_line_cable_or_equivalent,1,unique_RAW_endpoint_and_electrical_parameter_match,1,1,0,115,115,-2.0799999999998,-2.08000000000004,-2.38031816479634e-13,6.79012401860746e-13,3.90243393155743e-13,-2.88769008705003e-13,2.08044146743954,2.08041074602824,-3.07214113042242e-05,-0.763077976933021,-0.824916266937687,-0.0618382900046651,0.010124576640659,0.00973924441520111,-0.000385332225457856,0.0107858885970123,0.0104786429681299,-0.000307245628882407
91,104,PERFORM2019:AC:26:557:1,26,557,20026,20557,1,ac_branch_unresolved_line_cable_or_equivalent,1,unique_RAW_endpoint_and_electrical_parameter_match,1,1,0,345,345,372.889470976528,373.752280544695,0.862809568166654,56.4055997533265,-0.78834806591442,-57.1939478192409,-372.877167993098,-373.740394497524,-0.863226504426677,-56.7510829876979,0.425399841520004,57.1764828292179,0.586915374116676,0.576951875674553,-0.00996349844212341,0.587050613478577,0.576950399850829,-0.0101002136277479
92,105,PERFORM2019:AC:26:557:2,26,557,20026,20557,1,ac_branch_unresolved_line_cable_or_equivalent,2,unique_RAW_endpoint_and_electrical_parameter_match,1,1,0,345,345,393.71625784904,394.450887013546,0.73462916450643,58.4173716345273,-1.94632051297009,-60.3636921474974,-393.702554218216,-394.437647785622,-0.735093567406238,-58.7117926723597,1.63462561683943,60.3464182891991,0.619433480616953,0.608909845132371,-0.010523635484582,0.619557384088284,0.608905991222573,-0.0106513928657109
93,106,PERFORM2019:XFMR:26:1468:1,26,1468,20026,21468,1,two_winding_transformer,1,unique_RAW_endpoint_and_electrical_parameter_match,1,1,0,345,138,478.342254454446,476.744819548547,-1.59743490589881,72.7286010494958,55.1205013755586,-17.6080996739371,-475.83181720647,-474.31468865671,1.51712854976029,40.4435297261801,54.4313670548353,13.9878373286551,0.75298117724573,0.740839735643449,-0.0121414416022806,1.88245294311432,1.85209933910862,-0.0303536040057015
96,107,PERFORM2019:AC:28:1286:1,1286,28,21286,20028,1,ac_branch_unresolved_line_cable_or_equivalent,1,unique_RAW_endpoint_and_electrical_parameter_match,1,1,0,115,115,-34.3982381175175,13.2665177190824,47.6647558365999,16.4233743343541,-12.9889150655471,-29.4122893999012,34.4052346874739,-13.2649925127445,-47.6702272002184,-16.4307595548691,12.9557293455916,29.3864889004607,0.187762929148977,0.0877493613968315,-0.100013567752146,0.187840092680036,0.0876188501261335,-0.100221242553903
97,108,PERFORM2019:AC:28:1287:1,1287,28,21287,20028,1,ac_branch_unresolved_line_cable_or_equivalent,1,unique_RAW_endpoint_and_electrical_parameter_match,1,1,0,115,115,36.4929469006758,-11.18369704671,-47.6766439473858,-16.4344409367572,12.922655263718,29.3570962004751,-36.4852346874557,11.1849925127502,47.6702272002059,16.4307595548856,-12.9557293456167,-29.3864889005023,0.197208056121472,0.0807422265349251,-0.116465829586546,0.197136635717392,0.0808794409129912,-0.116257194804401
104,109,PERFORM2019:AC:31:32:1,32,31,20032,20031,1,ac_branch_unresolved_line_cable_or_equivalent,1,unique_RAW_endpoint_and_electrical_parameter_match,1,1,0,115,115,10.6572993826248,10.6700500269806,0.0127506443557461,-12.9801579762449,-8.12953754400131,4.85062043224357,-10.6556569320037,-10.6690749041462,-0.0134179721424914,12.9422932899962,8.08530970666705,-4.8569835833292,0.0831503825388754,0.0640725874767331,-0.0190777950621423,0.0829773332498042,0.0639321047900678,-0.0190452284597365
105,110,PERFORM2019:AC:31:680:1,680,31,20680,20031,1,ac_branch_unresolved_line_cable_or_equivalent,1,unique_RAW_endpoint_and_electrical_parameter_match,1,1,0,115,115,-64.9964372700911,-65.0147735629902,-0.0183362928991357,13.2392517082646,7.99760498096276,-5.24164672730181,65.0499218778103,65.0633541722846,0.0134322944743701,-13.1060792229355,-7.89128769682802,5.21479152610747,0.328354555783339,0.312953244150276,-0.0154013116330638,0.328441502771708,0.313008264968762,-0.0154332378029465
106,111,PERFORM2019:AC:32:84:1,32,84,20032,20084,1,ac_branch_unresolved_line_cable_or_equivalent,1,unique_RAW_endpoint_and_electrical_parameter_match,1,1,0,115,115,4.81972484053321,4.79194405281797,-0.0277807877152361,-3.01034163392418,-1.44603905784218,1.564302576082,-4.81650355641169,-4.78957168117194,0.0269318752397512,2.457210968973,0.84784182145421,-1.60936914751878,0.0281344468160855,0.0239081305966042,-0.0042263162194813,0.0267535033311222,0.0232335873007699,-0.00351991603035237
107,112,PERFORM2019:AC:32:474:1,32,474,20032,20474,1,ac_branch_unresolved_line_cable_or_equivalent,1,unique_RAW_endpoint_and_electrical_parameter_match,1,1,0,115,115,77.4121760925505,77.5365265085739,0.124350416023432,-17.5132892191412,-11.834263172263,5.67902604687825,-77.0664223155207,-77.222154867292,-0.155732551771393,18.5455491289166,12.7076365508443,-5.8379125780723,0.392952247314469,0.374641633970864,-0.0183106133436057,0.392504448268306,0.374322012226167,-0.0181824360421398
108,113,PERFORM2019:AC:32:678:2,32,678,20032,20678,1,ac_branch_unresolved_line_cable_or_equivalent,2,unique_RAW_endpoint_and_electrical_parameter_match,1,1,0,115,115,50.672012492522,50.5626911970991,-0.109321295422831,-11.4748349126744,-7.20121216973042,4.27362274294398,-50.5148030641151,-50.4212113440179,0.0935917200971872,11.7298033543434,7.35224929608068,-4.37755405826275,0.257228517854798,0.243949472322908,-0.0132790455318905,0.256727809629139,0.243618447983881,-0.0131093616452581
113,114,PERFORM2019:AC:35:36:1,35,36,20035,20036,1,ac_branch_unresolved_line_cable_or_equivalent,1,electrically_identical_parallel_assignment_not_unique_physical_identity,0,1,0,115,115,-70.3061494904024,-70.3064514514236,-0.000301961021179409,23.3869257910796,25.058437989525,1.67151219844538,70.315715487158,70.3155102429138,-0.000205244244156688,-23.359965336114,-25.0345802558167,-1.67461491970272,0.365980519878374,0.356144591284655,-0.00983592859371829,0.36600144551945,0.356167633977027,-0.00983381154242263
114,115,PERFORM2019:AC:35:36:2,35,36,20035,20036,1,ac_branch_unresolved_line_cable_or_equivalent,2,electrically_identical_parallel_assignment_not_unique_physical_identity,0,1,0,115,115,-70.3061494904024,-70.3064514514236,-0.000301961021179409,23.3869257910796,25.058437989525,1.67151219844538,70.315715487158,70.3155102429138,-0.000205244244156688,-23.359965336114,-25.0345802558167,-1.67461491970272,0.365980519878374,0.356144591284655,-0.00983592859371829,0.36600144551945,0.356167633977027,-0.00983381154242263
115,116,PERFORM2019:AC:35:191:1,35,191,20035,20191,1,ac_branch_unresolved_line_cable_or_equivalent,1,unique_RAW_endpoint_and_electrical_parameter_match,1,1,0,115,115,35.530221059041,35.2565177078725,-0.273703351168457,2.87395396190892,2.87136452668683,-0.00258943522208543,-35.3171554013001,-35.0606625627963,0.256492838503846,-3.20448677942784,-3.36044003208863,-0.155953252660797,0.176071745373777,0.168786517995111,-0.0072852273786663,0.176585658453459,0.169336036009332,-0.007249622444127
116,117,PERFORM2019:AC:35:485:1,35,485,20035,20485,1,ac_branch_unresolved_line_cable_or_equivalent,1,electrically_identical_parallel_assignment_not_unique_physical_identity,0,1,0,115,115,48.348930977228,48.4860920772097,0.137161099981682,-24.3286228357944,-26.3099088693337,-1.98128603353931,-47.8257865760962,-47.9796021646623,-0.153815588566154,25.1597289813024,26.9758760785576,1.8161470972552,0.267345243970528,0.263221764722994,-0.00412347924753353,0.264349038033473,0.259943024852897,-0.00440601318057637
117,118,PERFORM2019:AC:35:485:2,35,485,20035,20485,1,ac_branch_unresolved_line_cable_or_equivalent,2,electrically_identical_parallel_assignment_not_unique_physical_identity,0,1,0,115,115,48.348930977228,48.4860920772097,0.137161099981682,-24.3286228357944,-26.3099088693337,-1.98128603353931,-47.8257865760962,-47.9796021646623,-0.153815588566154,25.1597289813024,26.9758760785576,1.8161470972552,0.267345243970528,0.263221764722994,-0.00412347924753353,0.264349038033473,0.259943024852897,-0.00440601318057637
118,119,PERFORM2019:AC:36:190:1,36,190,20036,20190,1,ac_branch_unresolved_line_cable_or_equivalent,1,unique_RAW_endpoint_and_electrical_parameter_match,1,1,0,115,115,-61.2894773171186,-58.8172989679682,2.47217834915038,10.5086821005891,11.9760993654176,1.46741726482848,62.3867134129795,59.7730760174906,-2.61363739548892,-8.04582497648295,-10.2397986932037,-2.19397371672071,0.307167162624824,0.286427048025682,-0.0207401145991417,0.308681565423091,0.28837016596915,-0.0203113994539415
119,120,PERFORM2019:AC:36:192:1,36,192,20036,20192,1,ac_branch_unresolved_line_cable_or_equivalent,1,electrically_identical_parallel_assignment_not_unique_physical_identity,0,1,0,115,115,-77.1169690303584,-78.4551485762032,-1.33817954584477,21.6343746807489,23.0286848698056,1.39431018905675,77.6103836405785,78.935109321739,1.32472568116047,-20.1534080581379,-21.6433245407112,-1.48991648257333,0.395637923746821,0.390171702143366,-0.00546622160345478,0.396360045099804,0.39095441072891,-0.00540563437089375
120,121,PERFORM2019:AC:36:192:2,36,192,20036,20192,1,ac_branch_unresolved_line_cable_or_equivalent,2,electrically_identical_parallel_assignment_not_unique_physical_identity,0,1,0,115,115,-77.1169690303584,-78.4551485762032,-1.33817954584477,21.6343746807489,23.0286848698056,1.39431018905675,77.6103836405785,78.935109321739,1.32472568116047,-20.1534080581379,-21.6433245407112,-1.48991648257333,0.395637923746821,0.390171702143366,-0.00546622160345478,0.396360045099804,0.39095441072891,-0.00540563437089375
121,122,PERFORM2019:AC:36:490:N,490,36,20490,20036,1,ac_branch_unresolved_line_cable_or_equivalent,N,unique_RAW_endpoint_and_electrical_parameter_match,1,1,0,115,115,-39.0707969120171,-39.3056368328084,-0.234839920791259,7.3598744056486,7.8239613574957,0.464086951847109,39.651984403498,39.8565756345569,0.204591231058821,-7.05750078976195,-7.96430859340293,-0.906807803640977,0.195907695933871,0.190533037145094,-0.00537465878877669,0.198945600886134,0.193950008036215,-0.00499559284991885
129,123,PERFORM2019:AC:40:779:1,779,40,20779,20040,1,ac_branch_unresolved_line_cable_or_equivalent,1,unique_RAW_endpoint_and_electrical_parameter_match,1,1,0,115,115,2.08013488825678,2.0801279556643,-6.93259247297462e-06,-0.252643668787958,-0.2665004006812,-0.0138567318932423,-2.07999999999983,-2.08000000000002,-1.90958360235527e-13,1.01629815674187e-12,2.58215671067319e-12,1.56585855393132e-12,0.0100696147029302,0.00981343680049326,-0.000256177902436934,0.00999599116825556,0.00973371526990772,-0.000262275898347843
149,124,PERFORM2019:AC:49:1015:1,1015,49,21015,20049,1,ac_branch_unresolved_line_cable_or_equivalent,1,unique_RAW_endpoint_and_electrical_parameter_match,1,1,0,115,115,-6.45248624286442,-6.4464854597368,0.00600078312761099,1.87489414017747,2.94021893554297,1.0653247953655,6.45354862684916,6.44757954904866,-0.00596907780050238,-2.02899995174866,-3.10739862000987,-1.07839866826121,0.0337870086551389,0.0342283012991598,0.000441292644020909,0.0340177462696035,0.0345805270873782,0.000562780817774687
150,125,PERFORM2019:AC:49:1016:1,1016,49,21016,20049,1,ac_branch_unresolved_line_cable_or_equivalent,1,unique_RAW_endpoint_and_electrical_parameter_match,1,1,0,115,115,10.6062571806248,10.6002003538571,-0.00605682676762065,-2.17532667108409,-3.26717652188546,-1.09184985080137,-10.6035486268503,-10.5975795490506,0.00596907779970479,2.02899995174521,3.10739862000508,1.07839866825986,0.0544412854854719,0.0535951895932505,-0.000846095892221378,0.0542872954868663,0.0533578344510814,-0.000929461035784854
151,126,PERFORM2019:AC:50:412:1,50,412,20050,20412,1,ac_branch_unresolved_line_cable_or_equivalent,1,unique_RAW_endpoint_and_electrical_parameter_match,1,1,0,115,115,-2.21601445199834,-2.27180114773116,-0.0557866957328201,0.000915685685680567,0.033431662796287,0.0325159771106064,2.21617255707106,2.2719595028052,0.0557869457341389,-0.233274295295952,-0.277744523292312,-0.0444702279963602,0.0109570013023437,0.0109564593018107,-5.42000532999937e-07,0.011017706334289,0.0110370518308486,1.93454965595127e-05
152,127,PERFORM2019:AC:50:1031:1,1031,50,21031,20050,1,ac_branch_unresolved_line_cable_or_equivalent,1,unique_RAW_endpoint_and_electrical_parameter_match,1,1,0,115,115,1.93410349865841,1.87830452893463,-0.055798969723778,-0.227481041700266,-0.206760738536408,0.0207203031638585,-1.9339855480026,-1.878198852267,0.0557866957356041,-0.000915685683535283,-0.0334316627949888,-0.0325159771114535,0.0096285772179057,0.00911201847154506,-0.000516558746360637,0.00956252009781586,0.00905864530410592,-0.000503874793709939
165,128,PERFORM2019:AC:59:83:1,59,83,20059,20083,1,ac_branch_unresolved_line_cable_or_equivalent,1,unique_RAW_endpoint_and_electrical_parameter_match,1,1,0,115,115,-3.68230083352361,-3.68195855535629,0.00034227816731569,-0.399729960039818,-2.70915599014366,-2.30942603010384,3.68311607246125,3.68304788813506,-6.81843261864934e-05,-0.0617007855034548,2.21162065298375,2.27332143848721,0.0180330549085451,0.021419845003316,0.00338679009477092,0.0179295057566197,0.0201148645105674,0.00218535875394776
166,129,PERFORM2019:AC:59:83:2,59,83,20059,20083,1,ac_branch_unresolved_line_cable_or_equivalent,2,unique_RAW_endpoint_and_electrical_parameter_match,1,1,0,115,115,-3.68924150340098,-3.68907134221284,0.000170161188134621,-0.39923554415403,-2.71292957292315,-2.31369402876912,3.69005853026693,3.69016306404516,0.000104533778225502,-0.0611253069280384,2.21655145266456,2.2776767595926,0.0180663902855353,0.0214571701286665,0.00339077984313123,0.0179632457395532,0.0201553106187321,0.00219206487917894
167,130,PERFORM2019:AC:59:1027:1,1027,59,21027,20059,1,ac_branch_unresolved_line_cable_or_equivalent,1,unique_RAW_endpoint_and_electrical_parameter_match,1,1,0,115,115,-99.0572595688726,-96.8759387772295,2.18132079164309,2.17850520931416,4.12320776465551,1.94470255534135,99.7326369487453,97.473747441204,-2.25888950754126,0.0926580965013279,-2.21522988779746,-2.30788798429878,0.485534016582551,0.456771162505747,-0.0287628540768039,0.485560793166846,0.456857698687932,-0.0287030944789144
168,131,PERFORM2019:AC:59:1028:1,1028,59,21028,20059,1,ac_branch_unresolved_line_cable_or_equivalent,1,unique_RAW_endpoint_and_electrical_parameter_match,1,1,0,115,115,-99.2051504597798,-97.0204594513276,2.18469100845221,2.18733997649309,4.13477645342123,1.94743647692814,99.8816085105359,97.6192245996762,-2.26238391085968,0.0885407703970635,-2.22241644013812,-2.31095721053519,0.486259212500756,0.457453473158847,-0.0288057393419092,0.486286061003986,0.457539960988571,-0.0287461000154157
169,132,PERFORM2019:AC:59:1040:1,1040,59,21040,20059,1,ac_branch_unresolved_line_cable_or_equivalent,1,unique_RAW_endpoint_and_electrical_parameter_match,1,1,0,115,115,11.4179878403486,-61.6242148709174,-73.042202711266,-16.4324842056097,4.24931275375931,20.6817969593691,-11.3375328470168,62.380917253985,73.7184501010018,15.1598674200448,-2.85681559891933,-18.0166830189642,0.0985427927910071,0.292141935070424,0.193599142279417,0.0921651284619488,0.292609122586237,0.200443994124288
170,133,PERFORM2019:AC:59:1041:1,1041,59,21041,20059,1,ac_branch_unresolved_line_cable_or_equivalent,1,unique_RAW_endpoint_and_electrical_parameter_match,1,1,0,115,115,11.3367236147286,-61.6399292153124,-72.9766528300409,-16.4047955693926,4.22088488791719,20.6256804573098,-11.2568527430475,62.3969987594077,73.6538515024551,15.129711799998,-2.82716198025877,-17.9568737802568,0.0982018081767656,0.292214825051198,0.194013016874433,0.0918125841885982,0.292678075789913,0.200865491601314
171,134,PERFORM2019:XFMR:59:1220:NX,59,1220,20059,21220,1,two_winding_transformer,NX,unique_RAW_endpoint_and_electrical_parameter_match,1,1,0,115,230,-158.815411221771,-290.134513411904,-131.319102190133,-38.055580121676,0.514128580883508,38.5697087025596,159.18913232035,291.227124677235,132.037992356885,53.6816367937892,45.1702216406754,-8.51141515311378,0.795100829402126,1.3595063332019,0.564405503799772,0.397550414701063,0.679753166600949,0.282202751899886
172,135,PERFORM2019:AC:60:500:1,60,500,20060,20500,1,ac_branch_unresolved_line_cable_or_equivalent,1,unique_RAW_endpoint_and_electrical_parameter_match,1,1,0,69,69,-7.58881378408712,-8.22977256719182,-0.640958783104693,-1.17313265729682,-1.11525393152652,0.0578787257703046,7.60623955881107,8.24915348957331,0.642913930762236,1.05888633761558,0.997427931143872,-0.0614584064717083,0.0618183880015033,0.0651799081011923,0.00336152009968903,0.0616386268446479,0.0650185663203365,0.00337993947568865
173,136,PERFORM2019:AC:60:533:1,533,60,20533,20060,1,ac_branch_unresolved_line_cable_or_equivalent,1,unique_RAW_endpoint_and_electrical_parameter_match,1,1,0,69,69,-16.1806751525246,-16.8178128499215,-0.637137697396884,0.573156400463256,1.52716464585379,0.954008245390536,16.2976627259051,16.9386251798013,0.640962453896247,-0.533664542012964,-1.49102232987821,-0.957357787865245,0.131210214357517,0.133285950348471,0.00207573599095398,0.131272465125773,0.133453069228267,0.00218060410249354
177,137,PERFORM2019:AC:62:63:1,63,62,20063,20062,1,ac_branch_unresolved_line_cable_or_equivalent,1,unique_RAW_endpoint_and_electrical_parameter_match,1,1,0,345,345,571.410175425217,579.496391382907,8.08621595769034,27.8171022189912,13.7866015618618,-14.0305006571294,-571.410175425238,-579.496391382945,-8.08621595770649,-27.8112516157577,-13.7926870411795,14.0185645745782,0.900657149852533,0.887858225396171,-0.0127989244563618,0.900667787603578,0.887863575396534,-0.0128042122070435
178,138,PERFORM2019:AC:62:722:1,62,722,20062,20722,1,ac_branch_unresolved_line_cable_or_equivalent,1,unique_RAW_endpoint_and_electrical_parameter_match,1,1,0,345,345,571.410175425256,579.496391382999,8.08621595774252,27.8112516153215,13.7926870409171,-14.0185645744044,-570.685268169461,-578.792270137821,-8.1070019683599,-27.8589645581245,-14.7950886938256,13.0638758642989,0.900667787603573,0.887863575396607,-0.0128042122069655,0.901523813191945,0.888309656217563,-0.013214156974382
179,139,PERFORM2019:AC:63:800:1,63,800,20063,20800,1,ac_branch_unresolved_line_cable_or_equivalent,1,unique_RAW_endpoint_and_electrical_parameter_match,1,1,0,345,345,82.2259435490536,74.1397339713575,-8.08620957769608,-59.9834958883275,-19.8927667322031,40.0907291561243,-82.2052597376498,-74.1282793967682,8.07698034088155,49.4400794064693,8.60773405371707,-40.8323453527522,0.16023562331747,0.11757553133051,-0.04266009198696,0.150775834890501,0.114270384963637,-0.0365054499268644
180,140,PERFORM2019:AC:64:422:1,64,422,20064,20422,1,ac_branch_unresolved_line_cable_or_equivalent,1,unique_RAW_endpoint_and_electrical_parameter_match,1,1,0,115,115,-2.07999999991189,-2.07999999998681,-7.49191819693351e-11,7.44893036142003e-11,1.09839248807475e-10,3.53499451932748e-11,2.08000255588176,2.08000240413704,-1.51744717680202e-07,-0.00405221363389052,-0.00430933402464034,-0.000257120390749821,0.0103619571042702,0.0100495357375047,-0.000312421366765512,0.0103619768178378,0.0100495573535889,-0.000312419464248878
210,141,PERFORM2019:AC:79:557:1,557,79,20557,20079,1,ac_branch_unresolved_line_cable_or_equivalent,1,electrically_identical_parallel_assignment_not_unique_physical_identity,0,1,0,345,345,141.297131651856,143.405621112981,2.10848946112523,6.86432663644996,-36.2217434543308,-43.0860700907808,-141.276308503193,-143.383490385032,-2.10718188183878,-12.2433833455688,30.7670261368532,43.010409482422,0.220182258946524,0.228330483270617,0.0081482243240934,0.220789038584298,0.226267027307859,0.00547798872356123
211,142,PERFORM2019:AC:79:557:2,557,79,20557,20079,1,ac_branch_unresolved_line_cable_or_equivalent,2,electrically_identical_parallel_assignment_not_unique_physical_identity,0,1,0,345,345,141.297131651856,143.405621112981,2.10848946112523,6.86432663644996,-36.2217434543308,-43.0860700907808,-141.276308503193,-143.383490385032,-2.10718188183878,-12.2433833455688,30.7670261368532,43.010409482422,0.220182258946524,0.228330483270617,0.0081482243240934,0.220789038584298,0.226267027307859,0.00547798872356123
212,143,PERFORM2019:AC:79:1136:1,79,1136,20079,21136,1,ac_branch_unresolved_line_cable_or_equivalent,1,unique_RAW_endpoint_and_electrical_parameter_match,1,1,0,345,345,347.212102425355,349.31929048891,2.10718806355476,27.3747096745533,-83.8132542721039,-111.187963946657,-347.128023272195,-349.231751643485,-2.10372837128926,-29.8741330519961,81.2942749295115,111.168407981508,0.542280334817952,0.554273160727671,0.0119928259097188,0.542773713645544,0.552878655568691,0.0101049419231461
213,144,PERFORM2019:AC:79:1136:2,79,1136,20079,21136,1,ac_branch_unresolved_line_cable_or_equivalent,2,unique_RAW_endpoint_and_electrical_parameter_match,1,1,0,345,345,347.212102425354,349.319290488908,2.10718806355345,27.3729768084014,-83.8150188364824,-111.187995644884,-347.128023272196,-349.23175164348,-2.10372837128477,-29.8758639771349,81.2925080085255,111.16837198566,0.542280122765245,0.554273795948878,0.0119936731836328,0.5427739448631,0.552878037897314,0.0101040930342133
214,145,PERFORM2019:AC:80:375:1,80,375,20080,20375,1,ac_branch_unresolved_line_cable_or_equivalent,1,unique_RAW_endpoint_and_electrical_parameter_match,1,1,0,115,115,16.2015227418158,40.0276869517898,23.826164209974,-4.64804860145827,-1.45544960372397,3.19259899773431,-16.192992123003,-39.983025023701,-23.790032900698,4.46176920428567,1.40068807223492,-3.06108113205075,0.083163673330733,0.189967044631279,0.106803371300546,0.0828677244329338,0.189926494080235,0.107058769647301
215,146,PERFORM2019:AC:80:916:1,916,80,20916,20080,1,ac_branch_unresolved_line_cable_or_equivalent,1,unique_RAW_endpoint_and_electrical_parameter_match,1,1,0,115,115,-34.781656701722,-10.9694293293864,23.8122273723356,13.6283066172937,-2.99664721561051,-16.6249538329042,34.7968923972698,10.970731369102,-23.8261610281678,-13.6449455801718,2.91577955010024,16.5607251302721,0.184274029960634,0.0539443189560458,-0.130329711004588,0.184417594637047,0.0538378572656061,-0.130579737371441
221,147,PERFORM2019:AC:82:1039:1,1039,82,21039,20082,1,ac_branch_unresolved_line_cable_or_equivalent,1,unique_RAW_endpoint_and_electrical_parameter_match,1,1,0,115,115,-32.2001727486858,-32.2003512259695,-0.000178477283704126,8.24313042844432,2.48185803735865,-5.76127239108567,32.2014603382419,32.2014634235825,3.08534059456633e-06,-8.24621773055419,-2.48641256234533,5.75980516820886,0.164447124534456,0.152840071436714,-0.0116070530977418,0.16445723350449,0.152843348662791,-0.0116138848416998
222,148,PERFORM2019:AC:84:793:1,793,84,20793,20084,1,ac_branch_unresolved_line_cable_or_equivalent,1,unique_RAW_endpoint_and_electrical_parameter_match,1,1,0,115,115,-22.9468665157318,-22.9210375842032,0.0258289315286433,1.74745896943352,0.597441706250445,-1.15001726318308,22.9614958517571,22.9345700366668,-0.0269258150903298,-1.83872748110306,-0.704084868719466,1.1346426123836,0.113916014446204,0.109579214401337,-0.00433680004486661,0.113973922596007,0.109601065507988,-0.00437285708801856
278,149,PERFORM2019:AC:115:205:1,115,205,71,20205,1,ac_branch_unresolved_line_cable_or_equivalent,1,unique_RAW_endpoint_and_electrical_parameter_match,1,0,1,115,115,37.5984082803391,59.8235818689702,22.2251735886312,-5.2902612867408,-11.8559967702247,-6.56573548348387,-37.1642461422691,-58.762897208697,-21.5986510664279,4.61072649899345,13.6192750252937,9.00854852630022,0.182259118180798,0.28485564968553,0.102596531504732,0.180696626482795,0.282281334933317,0.101584708450523
292,150,PERFORM2019:AC:125:415:1,125,415,20125,20415,1,ac_branch_unresolved_line_cable_or_equivalent,1,unique_RAW_endpoint_and_electrical_parameter_match,1,1,0,115,115,4.06631718546294,4.72299231339816,0.656675127935218,-1.22185831091734,-1.54348295114418,-0.321624640226847,-4.06592803867288,-4.72247702399546,-0.656548985322581,1.04764175385263,1.36368262867248,0.316040874819846,0.0204612939121733,0.023539825396282,0.00307853148410875,0.0202335804024461,0.0232863243437071,0.00305274394126101
293,151,PERFORM2019:AC:125:418:N,125,418,20125,20418,1,ac_branch_unresolved_line_cable_or_equivalent,N,unique_RAW_endpoint_and_electrical_parameter_match,1,1,0,115,115,55.1424525311327,68.2481484521991,13.1056959210663,4.28584911041989,-2.57619924656733,-6.86204835698722,-55.069144114184,-68.1401710075775,-13.0710268933935,-4.09655459567727,2.96400600215611,7.06056059783339,0.266535304724778,0.32355758390934,0.0570222791845618,0.266626449736489,0.323507950239639,0.0568815005031506
294,152,PERFORM2019:AC:125:1216:1,1216,125,21216,20125,1,ac_branch_unresolved_line_cable_or_equivalent,1,unique_RAW_endpoint_and_electrical_parameter_match,1,1,0,115,115,61.3068064444881,75.077308850838,13.7705024063499,2.75822038683586,-4.40514539254716,-7.16336577938302,-61.2887697165982,-75.0511407655925,-13.7623710489943,-3.06399079948314,4.11968219771326,7.1836729971964,0.295635245848797,0.356197501045408,0.0605622551966106,0.295722100692054,0.356091922043722,0.0603698213516681
295,153,PERFORM2019:AC:126:415:1,126,415,20126,20415,1,ac_branch_unresolved_line_cable_or_equivalent,1,unique_RAW_endpoint_and_electrical_parameter_match,1,1,0,115,115,-2.08000000000434,-2.080000000003,1.34336985979644e-12,2.92632584830699e-12,1.45072842627769e-12,-1.4755974220293e-12,2.08005704197652,2.08005512942191,-1.91255461245987e-06,-0.106126388619758,-0.109829224730655,-0.00370283611089695,0.0100237191343608,0.00985401682036695,-0.000169702313993799,0.0100367864179876,0.00986777229606837,-0.000169014121919268
...